version 2
1
9
.tran 100u 50m{return}.kicad adjustpaths{return}.save all{return}.probe alli
1
1
V(/U_g)
 
