version 2
1
9
.tran 10u 5m{return}.kicad adjustpaths{return}.save all{return}.probe alli
2
2
I(L1)
 
1
V(/Ug)
 
